<?php
$dir = realpath(dirname(__FILE__));
define('DOCROOT', $dir.DIRECTORY_SEPARATOR);
$application = DOCROOT.'../application';
$modules = DOCROOT.'../modules';
$system = DOCROOT.'../system';
define('EXT', '.php');
error_reporting(E_ALL | E_STRICT);
define('APPPATH', realpath($application).DIRECTORY_SEPARATOR);
define('MODPATH', realpath($modules).DIRECTORY_SEPARATOR);
define('SYSPATH', realpath($system).DIRECTORY_SEPARATOR);
unset($application, $modules, $system, $dir);
require APPPATH.'bootstrap'.EXT;
?>

